3
gdb 3	799.58812	437.90386	282.94545	1.8511	6.31	-0.29280.0687	0.3615	19.0002	0.021375	-76.404702	-76.401867	-76.400922	-76.422349	6.002
O     0.0000000    0.0000000   -0.3931181   -0.589706
H    -0.7592247    0.0000000    0.1965590    0.294853
H     0.7592247    0.0000000    0.1965590    0.294853
1671.4222	3803.6305	3907.698
O	O
InChI=1S/H2O/h1H2	InChI=1S/H2O/h1H2
